28

         C      5.273000      0.363000      0.101000 
         C      6.597000     -0.367000     -0.098000 
         C      4.085000     -0.523000     -0.190000 
         C      7.750000      0.590000      0.167000 
         C      2.773000      0.204000      0.043000 
         C      9.095000     -0.090000     -0.042000 
         C      1.663000     -0.795000     -0.216000 
         C     10.250000      0.854000      0.243000 
         P      0.000000      0.000000      0.000000 
         H     -0.247000      1.070000     -0.925000 
         H     -0.263000      0.265000      1.386000 
         H      9.941000      1.922000      0.149000 
         H     10.640000      0.646000      1.259000 
         H     11.059000      0.679000     -0.484000 
         H      1.764000     -1.232000     -1.234000 
         H      1.764000     -1.605000      0.517000 
         H      9.183000     -0.986000      0.613000 
         H      9.155000     -0.410000     -1.096000 
         H      2.684000      1.052000     -0.665000 
         H      2.705000      0.584000      1.096000 
         H      7.668000      0.963000      1.208000 
         H      7.692000      1.461000     -0.519000 
         H      4.130000     -0.788000     -1.261000 
         H      4.099000     -1.449000      0.450000 
         H      6.648000     -1.202000      0.633000 
         H      6.677000     -0.773000     -1.144000 
         H      5.198000      0.755000      1.138000 
         H      5.236000      1.218000     -0.599000 
