50

         C       2.451000       0.530000       0.046000 
         C       3.333000       0.362000      -1.222000 
         C       2.977000       1.623000       1.007000 
         C       4.277000      -0.848000      -1.119000 
         C       4.349000       1.288000       1.611000 
         C       5.217000      -0.919000      -2.332000 
         C       4.740000       2.303000       2.691000 
         C       6.103000      -2.174000      -2.322000 
         C       7.199000      -2.116000      -1.246000 
         C       6.120000       1.979000       3.275000 
         C       8.144000      -3.318000      -1.360000 
         C       6.512000       2.993000       4.356000 
         C       9.231000      -3.267000      -0.279000 
         C       7.886000       2.674000       4.939000 
         C      10.174000      -4.461000      -0.390000 
         C       1.035000       0.863000      -0.347000 
         O       0.000000       0.000000       0.000000 
         O       0.783000       1.918000      -0.989000 
         H      -0.958000       0.208000      -0.257000 
         H      10.679000      -4.464000      -1.379000 
         H      10.948000      -4.398000       0.404000 
         H       9.612000      -5.411000      -0.262000 
         H       8.660000       2.709000       4.143000 
         H       8.142000       3.423000       5.717000 
         H       7.883000       1.665000       5.404000 
         H       8.759000      -3.274000       0.728000 
         H       9.821000      -2.331000      -0.385000 
         H       6.535000       4.016000       3.921000 
         H       5.761000       2.976000       5.176000 
         H       8.624000      -3.315000      -2.363000 
         H       7.559000      -4.257000      -1.250000 
         H       6.878000       1.999000       2.461000 
         H       6.103000       0.958000       3.717000 
         H       6.735000      -2.121000      -0.237000 
         H       7.784000      -1.177000      -1.364000 
         H       6.585000      -2.260000      -3.320000 
         H       5.474000      -3.079000      -2.173000 
         H       3.983000       2.284000       3.506000 
         H       4.757000       3.323000       2.248000 
         H       5.855000      -0.008000      -2.371000 
         H       4.603000      -0.939000      -3.260000 
         H       4.319000       0.270000       2.059000 
         H       5.119000       1.309000       0.810000 
         H       4.876000      -0.778000      -0.191000 
         H       3.669000      -1.777000      -1.069000 
         H       2.246000       1.741000       1.839000 
         H       3.040000       2.598000       0.474000 
         H       2.694000       0.205000      -2.121000 
         H       3.921000       1.287000      -1.409000 
         H       2.413000      -0.431000       0.606000 
