27

         C      5.259000     -0.166000     -0.441000 
         C      6.619000      0.236000      0.142000 
         C      4.110000      0.353000      0.432000 
         C      7.767000     -0.283000     -0.731000 
         C      2.751000     -0.049000     -0.152000 
         C      9.127000      0.120000     -0.148000 
         C      1.605000      0.468000      0.719000 
         C     10.273000     -0.395000     -1.014000 
         S      0.000000      0.000000      0.000000 
         H      0.195000     -1.371000      0.256000 
         H     11.242000     -0.089000     -0.567000 
         H     10.243000     -1.504000     -1.073000 
         H     10.203000      0.030000     -2.038000 
         H      1.679000      0.044000      1.744000 
         H      1.650000      1.576000      0.786000 
         H      9.234000     -0.299000      0.877000 
         H      9.194000      1.228000     -0.084000 
         H      2.648000      0.371000     -1.176000 
         H      2.690000     -1.158000     -0.216000 
         H      7.669000      0.137000     -1.757000 
         H      7.709000     -1.392000     -0.795000 
         H      4.169000      1.462000      0.496000 
         H      4.209000     -0.067000      1.457000 
         H      6.718000     -0.183000      1.167000 
         H      6.678000      1.345000      0.206000 
         H      5.160000      0.253000     -1.467000 
         H      5.200000     -1.275000     -0.506000 
