51

         C       4.014000       0.722000       3.385000 
         C       3.684000      -1.834000      -3.307000 
         C       4.619000       1.577000       4.506000 
         C       4.643000      -1.547000      -4.468000 
         C       2.700000       1.328000       2.878000 
         C       2.881000      -0.582000      -2.934000 
         C       5.933000       0.971000       5.012000 
         C       5.446000      -2.799000      -4.840000 
         C       2.096000       0.474000       1.758000 
         C       1.923000      -0.869000      -1.771000 
         C       6.537000       1.826000       6.132000 
         C       6.406000      -2.511000      -6.001000 
         C       0.790000       1.084000       1.244000 
         C       1.121000       0.378000      -1.398000 
         C       7.846000       1.226000       6.638000 
         C       7.207000      -3.755000      -6.375000 
         S       0.000000       0.000000       0.000000 
         H       7.892000      -3.517000      -7.216000 
         H       7.814000      -4.097000      -5.509000 
         H       6.526000      -4.572000      -6.692000 
         H       8.589000       1.171000       5.815000 
         H       7.671000       0.208000       7.045000 
         H       8.259000       1.866000       7.447000 
         H       1.809000       1.217000      -1.163000 
         H       0.495000       0.685000      -2.263000 
         H       0.079000       1.194000       2.091000 
         H       0.968000       2.095000       0.818000 
         H       7.112000      -1.702000      -5.712000 
         H       5.829000      -2.175000      -6.890000 
         H       5.821000       1.894000       6.979000 
         H       6.735000       2.853000       5.754000 
         H       1.220000      -1.681000      -2.062000 
         H       2.506000      -1.210000      -0.889000 
         H       1.894000      -0.551000       2.142000 
         H       2.826000       0.401000       0.925000 
         H       6.030000      -3.138000      -3.956000 
         H       4.746000      -3.611000      -5.135000 
         H       5.741000      -0.055000       5.396000 
         H       6.656000       0.904000       4.169000 
         H       3.582000       0.230000      -2.640000 
         H       2.296000      -0.243000      -3.817000 
         H       2.892000       2.355000       2.494000 
         H       1.977000       1.396000       3.721000 
         H       4.060000      -1.208000      -5.352000 
         H       5.344000      -0.735000      -4.173000 
         H       4.810000       2.604000       4.122000 
         H       3.896000       1.644000       5.348000 
         H       2.983000      -2.646000      -3.601000 
         H       4.267000      -2.174000      -2.423000 
         H       3.821000      -0.304000       3.769000 
         H       4.737000       0.655000       2.543000 
