77

         P       1.512000       0.000000       0.000000 
         C       2.021000      -1.729000      -0.326000 
         C       2.020000       1.147000      -1.334000 
         C       2.020000       0.582000       1.661000 
         C       3.438000      -2.039000       0.165000 
         C       3.437000       0.877000      -1.849000 
         C       3.437000       1.163000       1.684000 
         C       3.833000      -3.479000      -0.180000 
         C       3.833000       1.896000      -2.924000 
         C       3.832000       1.585000       3.104000 
         C       5.251000      -3.793000       0.314000 
         C       5.250000       1.624000      -3.443000 
         C       5.249000       2.169000       3.129000 
         C       5.649000      -5.232000      -0.032000 
         C       5.648000       2.644000      -4.516000 
         C       5.647000       2.590000       4.548000 
         C       7.066000      -5.545000       0.461000 
         C       7.065000       2.373000      -5.035000 
         C       7.065000       3.173000       4.573000 
         C       7.464000      -6.984000       0.116000 
         C       7.462000       3.392000      -6.108000 
         C       7.462000       3.593000       5.993000 
         C       8.875000      -7.299000       0.606000 
         C       8.872000       3.126000      -6.626000 
         C       8.872000       4.176000       6.021000 
         O       0.000000       0.000000       0.000000 
         H       8.931000       5.076000       5.372000 
         H       9.132000       4.470000       7.060000 
         H       9.609000       3.422000       5.670000 
         H       8.932000       2.114000      -7.080000 
         H       9.132000       3.879000      -7.401000 
         H       9.608000       3.201000      -5.798000 
         H       9.135000      -8.346000       0.341000 
         H       8.934000      -7.186000       1.709000 
         H       9.611000      -6.619000       0.127000 
         H       6.749000       4.358000       6.371000 
         H       7.424000       2.711000       6.669000 
         H       7.423000       4.419000      -5.683000 
         H       6.750000       3.337000      -6.961000 
         H       6.752000      -7.694000       0.590000 
         H       7.426000      -7.130000      -0.986000 
         H       7.783000       2.410000       4.200000 
         H       7.110000       4.059000       3.901000 
         H       7.784000       2.431000      -4.188000 
         H       7.109000       1.348000      -5.467000 
         H       7.112000      -5.406000       1.564000 
         H       7.785000      -4.841000      -0.014000 
         H       4.929000       3.353000       4.921000 
         H       5.602000       1.705000       5.220000 
         H       4.928000       2.586000      -5.363000 
         H       5.604000       3.668000      -4.085000 
         H       4.931000      -5.937000       0.444000 
         H       5.604000      -5.372000      -1.134000 
         H       5.969000       1.407000       2.756000 
         H       5.294000       3.055000       2.456000 
         H       5.969000       1.682000      -2.597000 
         H       5.293000       0.600000      -3.875000 
         H       5.969000      -3.089000      -0.161000 
         H       5.296000      -3.653000       1.416000 
         H       3.113000       2.347000       3.475000 
         H       3.788000       0.699000       3.776000 
         H       3.113000       1.837000      -3.770000 
         H       3.790000       2.920000      -2.492000 
         H       3.114000      -4.183000       0.296000 
         H       3.789000      -3.619000      -1.282000 
         H       3.480000       2.053000       1.021000 
         H       4.164000       0.409000       1.322000 
         H       4.164000       0.940000      -1.015000 
         H       3.480000      -0.143000      -2.288000 
         H       4.164000      -1.348000      -0.307000 
         H       3.480000      -1.910000       1.268000 
         H       1.306000       1.371000       1.982000 
         H       1.939000      -0.266000       2.373000 
         H       1.306000       1.031000      -2.177000 
         H       1.939000       2.188000      -0.956000 
         H       1.307000      -2.401000       0.196000 
         H       1.939000      -1.922000      -1.417000 
