71

         N       0.000000       0.000000       0.000000 
         C       0.776000       0.311000      -1.253000 
         C       0.584000      -1.153000       0.761000 
         C      -1.365000      -0.423000      -0.415000 
         C      -0.173000       1.182000       0.885000 
         C       1.880000       1.391000      -1.123000 
         C       2.065000      -1.007000       1.173000 
         C       2.721000       1.471000      -2.404000 
         C       2.498000      -2.180000       2.063000 
         C       3.801000       2.554000      -2.289000 
         C       3.976000      -2.066000       2.454000 
         C       4.621000       2.653000      -3.581000 
         C       4.400000      -3.242000       3.343000 
         C       5.701000       3.735000      -3.466000 
         C       5.873000      -3.124000       3.751000 
         C       6.521000       3.835000      -4.758000 
         C       6.293000      -4.309000       4.630000 
         C       7.600000       4.918000      -4.643000 
         C       7.759000      -4.183000       5.061000 
         C       8.417000       5.019000      -5.936000 
         C       8.182000      -5.377000       5.925000 
         C       9.484000       6.105000      -5.829000 
         C       9.636000      -5.247000       6.373000 
         H       9.771000      -4.329000       6.983000 
         H      10.310000      -5.204000       5.490000 
         H       9.914000      -6.128000       6.989000 
         H       9.012000       7.094000      -5.645000 
         H      10.057000       6.157000      -6.779000 
         H      10.189000       5.875000      -5.001000 
         H       7.532000      -5.437000       6.826000 
         H       8.066000      -6.318000       5.344000 
         H       8.914000       4.046000      -6.142000 
         H       7.745000       5.258000      -6.788000 
         H       8.407000      -4.136000       4.158000 
         H       7.892000      -3.243000       5.641000 
         H       7.117000       5.898000      -4.434000 
         H       8.280000       4.671000      -3.797000 
         H       5.647000      -4.344000       5.535000 
         H       6.157000      -5.255000       4.061000 
         H       5.843000       4.080000      -5.606000 
         H       7.004000       2.854000      -4.964000 
         H       6.025000      -2.176000       4.312000 
         H       6.507000      -3.101000       2.838000 
         H       6.378000       3.490000      -2.618000 
         H       5.218000       4.716000      -3.260000 
         H       4.246000      -4.194000       2.789000 
         H       3.765000      -3.259000       4.257000 
         H       3.943000       2.898000      -4.429000 
         H       5.103000       1.671000      -3.787000 
         H       4.601000      -2.058000       1.533000 
         H       4.139000      -1.112000       3.002000 
         H       3.318000       3.536000      -2.086000 
         H       4.478000       2.310000      -1.441000 
         H       1.876000      -2.190000       2.985000 
         H       2.334000      -3.136000       1.518000 
         H       3.208000       0.487000      -2.586000 
         H       2.056000       1.702000      -3.265000 
         H       2.225000      -0.068000       1.741000 
         H       2.706000      -1.009000       0.267000 
         H       1.406000       2.383000      -0.954000 
         H       2.554000       1.185000      -0.270000 
         H       0.790000       1.551000       1.290000 
         H      -0.649000       2.024000       0.334000 
         H      -0.819000       0.940000       1.759000 
         H      -1.982000      -0.734000       0.459000 
         H      -1.322000      -1.283000      -1.122000 
         H      -1.909000       0.404000      -0.926000 
         H       0.507000      -2.086000       0.155000 
         H      -0.015000      -1.334000       1.684000 
         H       1.224000      -0.622000      -1.663000 
         H       0.096000       0.683000      -2.055000 
