51

         C      2.959000      3.475000     -1.879000 
         C      3.297000     -3.595000      0.876000 
         C      3.651000      4.814000     -1.604000 
         C      3.634000     -4.792000      1.773000 
         C      2.159000      3.013000     -0.657000 
         C      1.997000     -2.919000      1.328000 
         C      4.561000      5.222000     -2.769000 
         C      4.918000     -5.488000      1.308000 
         C      1.433000      1.691000     -0.934000 
         C      1.662000     -1.719000      0.437000 
         C      5.205000      6.588000     -2.508000 
         C      5.254000     -6.682000      2.210000 
         C      0.690000      1.200000      0.310000 
         C      0.352000     -1.051000      0.879000 
         C      6.165000      6.971000     -3.630000 
         C      6.540000     -7.369000      1.758000 
         O      0.000000      0.000000      0.000000 
         H      6.754000     -8.231000      2.425000 
         H      6.429000     -7.748000      0.719000 
         H      7.394000     -6.661000      1.802000 
         H      5.628000      7.019000     -4.600000 
         H      6.989000      6.228000     -3.700000 
         H      6.606000      7.968000     -3.415000 
         H     -0.461000     -1.808000      0.836000 
         H      0.406000     -0.714000      1.942000 
         H      1.421000      1.111000      1.150000 
         H     -0.061000      1.963000      0.608000 
         H      4.423000     -7.419000      2.180000 
         H      5.382000     -6.336000      3.259000 
         H      5.769000      6.562000     -1.551000 
         H      4.414000      7.366000     -2.428000 
         H      2.492000     -0.983000      0.491000 
         H      1.558000     -2.055000     -0.618000 
         H      2.170000      0.918000     -1.242000 
         H      0.706000      1.833000     -1.763000 
         H      4.784000     -5.845000      0.262000 
         H      5.759000     -4.761000      1.328000 
         H      5.359000      4.457000     -2.890000 
         H      3.968000      5.266000     -3.709000 
         H      1.165000     -3.655000      1.284000 
         H      2.108000     -2.573000      2.380000 
         H      1.414000      3.792000     -0.385000 
         H      2.854000      2.875000      0.200000 
         H      3.766000     -4.439000      2.820000 
         H      2.793000     -5.520000      1.750000 
         H      2.880000      5.598000     -1.439000 
         H      4.265000      4.728000     -0.680000 
         H      4.129000     -2.858000      0.922000 
         H      3.184000     -3.941000     -0.175000 
         H      3.723000      2.706000     -2.127000 
         H      2.275000      3.591000     -2.746000 
