71

         N       0.000000       0.000000       0.000000 
         C       0.776000       0.313000      -1.252000 
         C       0.592000      -1.147000       0.764000 
         C      -1.362000      -0.432000      -0.417000 
         C      -0.181000       1.184000       0.882000 
         C       1.873000       1.401000      -1.121000 
         C       2.072000      -0.991000       1.172000 
         C       2.746000       1.453000      -2.381000 
         C       2.524000      -2.169000       2.045000 
         C       3.811000       2.551000      -2.270000 
         C       4.002000      -2.035000       2.431000 
         C       4.685000       2.599000      -3.529000 
         C       4.453000      -3.212000       3.304000 
         C       5.751000       3.696000      -3.417000 
         C       5.931000      -3.077000       3.689000 
         C       6.626000       3.744000      -4.676000 
         C       6.383000      -4.255000       4.561000 
         C       7.691000       4.841000      -4.564000 
         C       7.861000      -4.120000       4.946000 
         C       8.565000       4.888000      -5.823000 
         C       8.311000      -5.298000       5.818000 
         C       9.627000       5.978000      -5.715000 
         C       9.782000      -5.167000       6.204000 
         H       9.947000      -4.234000       6.783000 
         H      10.420000      -5.153000       5.294000 
         H      10.079000      -6.032000       6.833000 
         H       9.149000       6.974000      -5.596000 
         H      10.244000       5.989000      -6.639000 
         H      10.293000       5.785000      -4.847000 
         H       7.698000      -5.335000       6.745000 
         H       8.169000      -6.251000       5.263000 
         H       9.070000       3.908000      -5.966000 
         H       7.930000       5.091000      -6.713000 
         H       8.480000      -4.088000       4.023000 
         H       8.010000      -3.170000       5.506000 
         H       7.193000       5.825000      -4.425000 
         H       8.333000       4.641000      -3.678000 
         H       5.763000      -4.288000       5.484000 
         H       6.234000      -5.205000       4.001000 
         H       5.984000       3.943000      -5.562000 
         H       7.124000       2.759000      -4.815000 
         H       6.080000      -2.127000       4.248000 
         H       6.551000      -3.045000       2.765000 
         H       6.392000       3.497000      -2.531000 
         H       5.252000       4.681000      -3.279000 
         H       4.304000      -4.162000       2.745000 
         H       3.834000      -3.244000       4.227000 
         H       4.044000       2.798000      -4.415000 
         H       5.184000       1.615000      -3.667000 
         H       4.622000      -2.002000       1.508000 
         H       4.151000      -1.084000       2.990000 
         H       3.311000       3.536000      -2.132000 
         H       4.453000       2.353000      -1.384000 
         H       1.905000      -2.202000       2.969000 
         H       2.376000      -3.120000       1.487000 
         H       3.247000       0.470000      -2.521000 
         H       2.103000       1.652000      -3.267000 
         H       2.224000      -0.056000       1.748000 
         H       2.710000      -0.977000       0.263000 
         H       1.390000       2.393000      -0.987000 
         H       2.528000       1.220000      -0.248000 
         H       0.778000       1.556000       1.292000 
         H      -0.658000       2.022000       0.326000 
         H      -0.831000       0.941000       1.753000 
         H      -1.977000      -0.746000       0.457000 
         H      -1.312000      -1.292000      -1.123000 
         H      -1.911000       0.391000      -0.929000 
         H       0.518000      -2.082000       0.161000 
         H      -0.004000      -1.329000       1.690000 
         H       1.231000      -0.620000      -1.657000 
         H       0.097000       0.677000      -2.058000 
