28

         C      6.192000      0.262000      0.207000 
         C      7.412000     -0.467000     -0.368000 
         C      4.887000     -0.370000     -0.292000 
         C      8.717000      0.165000      0.130000 
         C      3.667000      0.359000      0.283000 
         C      9.936000     -0.564000     -0.445000 
         C      2.361000     -0.274000     -0.216000 
         C     11.237000      0.062000      0.049000 
         C      1.143000      0.415000      0.327000 
         O      1.251000      1.504000      1.185000 
         O      0.000000      0.000000      0.000000 
         H     12.101000     -0.486000     -0.383000 
         H     11.297000      1.126000     -0.267000 
         H     11.297000      0.004000      1.157000 
         H      2.329000     -0.226000     -1.326000 
         H      2.329000     -1.342000      0.090000 
         H      9.913000     -0.516000     -1.555000 
         H      9.913000     -1.633000     -0.138000 
         H      3.699000      1.428000     -0.026000 
         H      3.699000      0.308000      1.394000 
         H      8.749000      1.234000     -0.177000 
         H      8.749000      0.116000      1.241000 
         H      4.855000     -0.321000     -1.403000 
         H      4.855000     -1.439000      0.016000 
         H      7.380000     -1.536000     -0.060000 
         H      7.380000     -0.418000     -1.479000 
         H      6.224000      0.213000      1.318000 
         H      6.224000      1.331000     -0.101000 
