76

         C      2.981000      4.023000     -1.852000 
         C      3.339000     -3.636000     -1.919000 
         C      4.799000     -0.103000      2.491000 
         C      3.146000      5.285000     -2.719000 
         C      3.773000     -4.764000     -2.871000 
         C      5.562000     -0.027000      3.818000 
         C      1.566000      3.422000     -1.946000 
         C      1.913000     -3.125000     -2.172000 
         C      3.288000      0.030000      2.716000 
         C      4.538000      5.913000     -2.528000 
         C      5.189000     -5.228000     -2.476000 
         C      7.073000     -0.160000      3.593000 
         C      1.455000      2.187000     -1.047000 
         C      1.581000     -2.072000     -1.106000 
         C      2.526000     -0.046000      1.388000 
         C      4.723000      7.190000     -3.366000 
         C      5.655000     -6.437000     -3.314000 
         C      7.836000     -0.084000      4.921000 
         C      0.041000      1.593000     -1.010000 
         C      0.184000     -1.476000     -1.173000 
         C      1.021000      0.085000      1.608000 
         C      6.084000      7.845000     -3.101000 
         C      7.065000     -6.852000     -2.882000 
         C      9.340000     -0.216000      4.701000 
         P      0.000000      0.000000      0.000000 
         H      9.577000     -1.193000      4.229000 
         H      9.708000      0.606000      4.051000 
         H      9.865000     -0.157000      5.678000 
         H      7.381000     -7.761000     -3.433000 
         H      7.079000     -7.053000     -1.790000 
         H      7.787000     -6.032000     -3.100000 
         H      6.191000      8.760000     -3.723000 
         H      6.188000      8.140000     -2.033000 
         H      6.914000      7.150000     -3.363000 
         H      0.653000     -0.736000      2.259000 
         H      0.785000      1.062000      2.080000 
         H     -0.574000     -2.246000     -0.896000 
         H     -0.025000     -1.120000     -2.196000 
         H     -0.658000      2.354000     -0.583000 
         H     -0.290000      1.337000     -2.038000 
         H      7.498000     -0.901000      5.595000 
         H      7.629000      0.890000      5.417000 
         H      4.963000     -7.301000     -3.177000 
         H      5.667000     -6.166000     -4.397000 
         H      3.921000      7.928000     -3.131000 
         H      4.661000      6.947000     -4.453000 
         H      2.863000      0.771000      0.714000 
         H      2.732000     -1.020000      0.892000 
         H      2.318000     -1.243000     -1.207000 
         H      1.647000     -2.559000     -0.106000 
         H      2.175000      1.417000     -1.401000 
         H      1.729000      2.505000     -0.020000 
         H      7.288000     -1.134000      3.101000 
         H      7.419000      0.658000      2.924000 
         H      5.196000     -5.480000     -1.389000 
         H      5.916000     -4.394000     -2.621000 
         H      4.663000      6.165000     -1.448000 
         H      5.327000      5.176000     -2.818000 
         H      2.943000     -0.789000      3.386000 
         H      3.073000      1.004000      3.208000 
         H      1.874000     -2.638000     -3.168000 
         H      1.211000     -3.976000     -2.145000 
         H      0.818000      4.181000     -1.637000 
         H      1.369000      3.123000     -2.993000 
         H      5.348000      0.947000      4.311000 
         H      5.217000     -0.845000      4.489000 
         H      3.794000     -4.367000     -3.924000 
         H      3.053000     -5.621000     -2.782000 
         H      3.002000      5.029000     -3.794000 
         H      2.374000      6.038000     -2.432000 
         H      5.013000     -1.078000      1.999000 
         H      5.144000      0.715000      1.821000 
         H      3.394000     -4.019000     -0.874000 
         H      4.029000     -2.775000     -2.025000 
         H      3.723000      3.253000     -2.168000 
         H      3.197000      4.273000     -0.788000 
