76

         C       2.979000       4.036000      -1.824000 
         C       3.348000      -3.621000      -1.946000 
         C       4.822000      -0.117000       2.481000 
         C       3.131000       5.309000      -2.683000 
         C       3.785000      -4.733000      -2.904000 
         C       5.594000      -0.050000       3.804000 
         C       1.569000       3.435000      -1.922000 
         C       1.923000      -3.104000      -2.190000 
         C       3.310000       0.016000       2.721000 
         C       4.526000       5.931000      -2.487000 
         C       5.200000      -5.206000      -2.532000 
         C       7.105000      -0.178000       3.569000 
         C       1.466000       2.193000      -1.020000 
         C       1.595000      -2.068000      -1.104000 
         C       2.551000      -0.056000       1.392000 
         C       4.699000       7.214000      -3.324000 
         C       5.667000      -6.398000      -3.368000 
         C       7.875000      -0.110000       4.894000 
         C       0.061000       1.596000      -0.991000 
         C       0.197000      -1.472000      -1.170000 
         C       1.024000       0.058000       1.594000 
         C       6.059000       7.867000      -3.061000 
         C       7.075000      -6.820000      -2.956000 
         C       9.379000      -0.236000       4.666000 
         P       0.000000       0.000000       0.000000 
         H       9.616000      -1.209000       4.185000 
         H       9.742000       0.591000       4.019000 
         H       9.909000      -0.183000       5.640000 
         H       7.383000      -7.726000      -3.517000 
         H       7.105000      -7.049000      -1.867000 
         H       7.797000      -6.003000      -3.173000 
         H       6.157000       8.788000      -3.678000 
         H       6.157000       8.152000      -1.991000 
         H       6.884000       7.174000      -3.333000 
         H       0.677000      -0.762000       2.258000 
         H       0.798000       1.023000       2.102000 
         H      -0.551000      -2.245000      -0.894000 
         H      -0.023000      -1.127000      -2.204000 
         H      -0.644000       2.326000      -0.534000 
         H      -0.285000       1.374000      -2.024000 
         H       7.544000      -0.933000       5.564000 
         H       7.669000       0.860000       5.399000 
         H       4.973000      -7.259000      -3.226000 
         H       5.670000      -6.125000      -4.449000 
         H       3.901000       7.943000      -3.070000 
         H       4.625000       6.970000      -4.405000 
         H       2.909000       0.751000       0.728000 
         H       2.795000      -1.025000       0.938000 
         H       2.328000      -1.237000      -1.209000 
         H       1.693000      -2.566000      -0.115000 
         H       2.180000       1.423000      -1.388000 
         H       1.734000       2.497000       0.015000 
         H       7.320000      -1.148000       3.070000 
         H       7.446000       0.646000       2.905000 
         H       5.218000      -5.494000      -1.454000 
         H       5.912000      -4.359000      -2.675000 
         H       4.667000       6.181000      -1.414000 
         H       5.306000       5.198000      -2.787000 
         H       2.969000      -0.812000       3.378000 
         H       3.095000       0.986000       3.216000 
         H       1.864000      -2.630000      -3.193000 
         H       1.199000      -3.949000      -2.146000 
         H       0.818000       4.187000      -1.597000 
         H       1.354000       3.145000      -2.972000 
         H       5.382000       0.920000       4.305000 
         H       5.256000      -0.874000       4.470000 
         H       3.783000      -4.351000      -3.951000 
         H       3.073000      -5.589000      -2.830000 
         H       2.985000       5.049000      -3.753000 
         H       2.357000       6.046000      -2.384000 
         H       5.037000      -1.087000       1.980000 
         H       5.164000       0.705000       1.814000 
         H       3.416000      -4.007000      -0.903000 
         H       4.060000      -2.766000      -2.043000 
         H       3.723000       3.281000      -2.158000 
         H       3.194000       4.290000      -0.763000 
