50

         C       2.479000       0.331000       0.192000 
         C       3.370000       0.180000      -1.064000 
         C       3.078000       1.301000       1.248000 
         C       4.727000      -0.474000      -0.765000 
         C       3.754000       0.552000       2.409000 
         C       5.494000      -0.769000      -2.060000 
         C       4.411000       1.532000       3.390000 
         C       6.859000      -1.400000      -1.759000 
         C       7.626000      -1.696000      -3.053000 
         C       5.075000       0.785000       4.552000 
         C       8.991000      -2.327000      -2.752000 
         C       5.732000       1.764000       5.531000 
         C       9.757000      -2.622000      -4.046000 
         C       6.395000       1.025000       6.689000 
         C      11.116000      -3.250000      -3.751000 
         C       1.113000       0.803000      -0.231000 
         O       0.000000       0.000000       0.000000 
         O       0.971000       1.924000      -0.791000 
         H      -0.926000       0.303000      -0.277000 
         H      10.988000      -4.209000      -3.205000 
         H      11.647000      -3.453000      -4.705000 
         H      11.736000      -2.560000      -3.139000 
         H       7.185000       0.342000       6.310000 
         H       6.862000       1.758000       7.380000 
         H       5.640000       0.436000       7.254000 
         H       9.913000      -1.679000      -4.614000 
         H       9.169000      -3.322000      -4.680000 
         H       6.503000       2.364000       5.000000 
         H       4.966000       2.459000       5.939000 
         H       8.842000      -3.274000      -2.188000 
         H       9.587000      -1.630000      -2.122000 
         H       5.847000       0.092000       4.151000 
         H       4.307000       0.186000       5.091000 
         H       7.775000      -0.749000      -3.617000 
         H       7.030000      -2.393000      -3.683000 
         H       6.710000      -2.347000      -1.195000 
         H       7.456000      -0.704000      -1.129000 
         H       3.639000       2.225000       3.790000 
         H       5.179000       2.130000       2.851000 
         H       5.643000       0.179000      -2.623000 
         H       4.899000      -1.465000      -2.690000 
         H       2.987000      -0.047000       2.948000 
         H       4.525000      -0.145000       2.021000 
         H       5.337000       0.213000      -0.140000 
         H       4.568000      -1.424000      -0.210000 
         H       2.278000       1.937000       1.688000 
         H       3.805000       1.993000       0.769000 
         H       2.831000      -0.453000      -1.804000 
         H       3.538000       1.175000      -1.531000 
         H       2.346000      -0.679000       0.643000 
