54

         C      16.038000       0.817000      -0.817000 
         C      16.670000       0.507000      -2.179000 
         C       5.599000      -0.149000       1.061000 
         C      14.523000       0.587000      -0.848000 
         C       7.025000      -0.107000       0.501000 
         C       4.601000      -0.610000      -0.008000 
         C      18.186000       0.736000      -2.149000 
         C      13.891000       0.897000       0.514000 
         C       8.023000       0.354000       1.570000 
         C       3.174000      -0.652000       0.552000 
         C      18.817000       0.426000      -3.511000 
         C      12.376000       0.667000       0.484000 
         C       9.449000       0.396000       1.010000 
         C       2.178000      -1.112000      -0.516000 
         C      20.325000       0.654000      -3.484000 
         C      11.751000       0.971000       1.823000 
         C      10.434000       0.849000       2.060000 
         C       0.790000      -1.144000       0.042000 
         O       0.000000       0.000000       0.000000 
         O       0.352000      -2.194000       0.585000 
         H      -0.936000      -0.001000       0.388000 
         H      10.072000       1.091000       3.056000 
         H      12.386000       1.305000       2.640000 
         H      20.802000      -0.008000      -2.730000 
         H      20.552000       1.713000      -3.238000 
         H      20.754000       0.422000      -4.482000 
         H       2.204000      -0.415000      -1.381000 
         H       2.453000      -2.127000      -0.879000 
         H       9.734000      -0.619000       0.657000 
         H       9.484000       1.100000       0.150000 
         H      12.172000      -0.393000       0.219000 
         H      11.922000       1.326000      -0.288000 
         H      18.618000      -0.633000      -3.784000 
         H      18.368000       1.081000      -4.290000 
         H       2.888000       0.362000       0.909000 
         H       3.138000      -1.354000       1.415000 
         H       7.988000      -0.348000       2.433000 
         H       7.738000       1.369000       1.927000 
         H      14.346000       0.240000       1.289000 
         H      14.096000       1.957000       0.783000 
         H      18.392000       1.796000      -1.880000 
         H      18.642000       0.080000      -1.374000 
         H       4.886000      -1.624000      -0.365000 
         H       4.636000       0.092000      -0.871000 
         H       7.311000      -1.121000       0.144000 
         H       7.061000       0.595000      -0.362000 
         H      14.067000       1.243000      -1.622000 
         H      14.317000      -0.473000      -1.116000 
         H       5.563000      -0.850000       1.924000 
         H       5.313000       0.865000       1.418000 
         H      16.464000      -0.553000      -2.448000 
         H      16.214000       1.163000      -2.954000 
         H      16.244000       1.876000      -0.549000 
         H      16.494000       0.161000      -0.043000 
