26

         S       6.205000       1.044000       0.213000 
         C       7.187000      -0.438000       0.049000 
         C       8.656000      -0.158000       0.375000 
         C       9.501000      -1.432000       0.233000 
         C      10.976000      -1.180000       0.554000 
         C       4.067000       0.262000      -1.396000 
         C       2.709000       0.090000      -1.237000 
         C       4.535000       0.677000      -0.167000 
         C       2.441000       0.412000       0.081000 
         C       1.124000       0.379000       0.723000 
         O       3.549000       0.758000       0.696000 
         F      11.684000      -2.360000       0.409000 
         F      11.115000      -0.735000       1.856000 
         F      11.501000      -0.236000      -0.311000 
         O       0.000000       0.000000       0.000000 
         O       6.706000       2.108000      -0.724000 
         O       6.290000       1.550000       1.625000 
         O       1.006000       0.696000       1.936000 
         H       2.002000      -0.232000      -1.991000 
         H       4.645000       0.104000      -2.297000 
         H       9.112000      -2.213000       0.922000 
         H       9.421000      -1.816000      -0.808000 
         H       8.733000       0.223000       1.417000 
         H       9.042000       0.622000      -0.317000 
         H       7.096000      -0.812000      -0.994000 
         H       6.785000      -1.209000       0.741000 
