26

         S      6.205000     -0.904000      0.571000 
         C      7.180000      0.426000     -0.110000 
         C      8.650000      0.288000      0.293000 
         C      9.489000      1.432000     -0.293000 
         C     10.965000      1.318000      0.095000 
         C      4.065000     -0.761000     -1.209000 
         C      2.706000     -0.540000     -1.122000 
         C      4.534000     -0.699000      0.086000 
         C      2.441000     -0.358000      0.223000 
         C      1.125000     -0.091000      0.810000 
         O      3.550000     -0.458000      0.920000 
         F     11.666000      2.373000     -0.460000 
         F     11.495000      0.132000     -0.379000 
         F     11.105000      1.365000      1.471000 
         O      0.000000      0.000000      0.000000 
         O      6.285000     -0.883000      2.072000 
         O      6.709000     -2.224000      0.060000 
         O      1.009000      0.058000      2.055000 
         H      1.999000     -0.515000     -1.940000 
         H      4.640000     -0.943000     -2.107000 
         H      9.407000      1.422000     -1.402000 
         H      9.096000      2.406000      0.074000 
         H      9.040000     -0.685000     -0.078000 
         H      8.728000      0.302000      1.402000 
         H      6.773000      1.390000      0.263000 
         H      7.085000      0.404000     -1.217000 
