32

         C       8.666000       0.262000      -0.038000 
         N       6.186000       0.082000       0.456000 
         C       4.859000       0.609000       0.609000 
         C       2.449000       0.324000       0.323000 
         C       9.934000      -1.346000      -1.478000 
         C       9.912000      -2.173000      -2.613000 
         C      12.197000      -2.858000      -2.178000 
         C       4.631000       1.850000       1.232000 
         C       3.764000      -0.155000       0.178000 
         C       2.242000       1.576000       0.924000 
         C      11.104000      -1.284000      -0.696000 
         C      11.040000      -2.926000      -2.960000 
         C      12.228000      -2.038000      -1.048000 
         C       3.327000       2.329000       1.380000 
         C       7.296000       0.857000      -0.021000 
         C       1.297000      -0.478000      -0.147000 
         O       8.784000      -0.606000      -1.161000 
        Cl       8.470000      -2.278000      -3.612000 
        Cl      13.609000      -3.803000      -2.616000 
         F       5.660000       2.572000       1.741000 
         O       0.000000       0.000000       0.000000 
         O       7.114000       2.009000      -0.500000 
         O       1.476000      -1.602000      -0.686000 
         H       3.154000       3.284000       1.860000 
         H      13.122000      -1.983000      -0.440000 
         H      11.017000      -3.562000      -3.836000 
         H      11.156000      -0.658000       0.184000 
         H       1.243000       1.971000       1.053000 
         H       3.945000      -1.119000      -0.283000 
         H       6.322000      -0.949000       0.565000 
         H       8.826000      -0.311000       0.901000 
         H       9.426000       1.071000      -0.104000 
