32

         C       8.044000       0.785000       1.152000 
         N       6.205000      -0.540000       0.018000 
         C       4.859000      -0.754000      -0.445000 
         C       2.449000      -0.391000      -0.241000 
         C      10.407000       0.891000       0.331000 
         C      11.262000       0.922000      -0.783000 
         C      13.194000       1.011000       0.680000 
         C       4.627000      -1.617000      -1.528000 
         C       3.763000      -0.158000       0.205000 
         C       2.242000      -1.240000      -1.341000 
         C      10.964000       0.920000       1.625000 
         C      12.649000       0.982000      -0.607000 
         C      12.351000       0.980000       1.794000 
         C       3.325000      -1.851000      -1.975000 
         C       6.684000       0.709000       0.539000 
         C       1.297000       0.241000       0.440000 
         O       9.021000       0.831000       0.116000 
        Cl      10.603000       0.886000      -2.412000 
        Cl      14.933000       1.086000       0.896000 
         F       5.666000      -2.219000      -2.161000 
         O       0.000000       0.000000       0.000000 
         O       6.003000       1.762000       0.413000 
         O       1.475000       1.006000       1.425000 
         H       3.154000      -2.510000      -2.817000 
         H      12.768000       1.002000       2.793000 
         H      13.303000       1.005000      -1.470000 
         H      10.337000       0.898000       2.505000 
         H       1.243000      -1.439000      -1.708000 
         H       3.931000       0.465000       1.074000 
         H       6.899000      -1.312000      -0.107000 
         H       8.209000      -0.113000       1.786000 
         H       8.121000       1.696000       1.785000 
