26

         S       6.205000       0.565000       0.903000 
         C       7.187000      -0.337000      -0.284000 
         C       8.656000      -0.381000       0.143000 
         C       9.500000      -1.156000      -0.878000 
         C      10.976000      -1.216000      -0.475000 
         C       4.067000       1.195000      -0.771000 
         C       2.708000       0.960000      -0.786000 
         C       4.535000       0.588000       0.376000 
         C       2.441000       0.225000       0.355000 
         C       1.124000      -0.264000       0.773000 
         O       3.550000       0.018000       1.029000 
         F      11.683000      -1.923000      -1.430000 
         F      11.114000      -1.853000       0.745000 
         F      11.501000       0.062000      -0.386000 
         O       0.000000       0.000000       0.000000 
         O       6.707000       1.976000       1.030000 
         O       6.290000      -0.110000       2.243000 
         O       1.007000      -0.926000       1.837000 
         H       2.002000       1.286000      -1.538000 
         H       4.644000       1.740000      -1.506000 
         H       9.111000      -2.194000      -0.970000 
         H       9.420000      -0.666000      -1.873000 
         H       8.732000      -0.874000       1.137000 
         H       9.042000       0.658000       0.232000 
         H       7.095000       0.161000      -1.273000 
         H       6.784000      -1.370000      -0.366000 
